  
       XFOIL         Version 6.99
  
 Calculated polar for: naca 2412                                       
  
 1 1 Reynolds number fixed          Mach number fixed         
  
 xtrf =   1.000 (top)        1.000 (bottom)  
 Mach =   0.000     Re =     0.000 e 6     Ncrit =   9.000
  
   alpha    CL        CD       CDp       CM     Top_Xtr  Bot_Xtr
  ------ -------- --------- --------- -------- -------- --------
  13.000   1.7954   0.00000  -0.00202  -0.0715   0.0000   0.0000
